78
 i =       13, E =      -476.8437654541
  C        23.6179085865       25.3455532869       22.5371975846
  C        25.2503907657       23.6780372587       22.4423331746
  C        26.6635674198       23.3167143389       22.3508826278
  C        27.6860552857       24.2822275479       22.2588036390
  C        26.7390384637       21.9422134707       22.3689996394
  C        27.9126475350       21.0837433634       22.2785092628
  C        29.0718335919       21.5408121177       21.6219376276
  C        30.2024183669       20.7444538726       21.5221262169
  C        30.1708937228       19.4828415949       22.0928342922
  C        29.0580187325       18.9907551148       22.7528805676
  C        27.9288705654       19.7926584050       22.8405374422
  C        25.3195717587       21.5079078929       22.4671196804
  C        23.7337546860       19.7964177079       22.5330931498
  C        23.3350019792       18.4125050397       22.5906850692
  C        24.2899945912       17.3758277862       22.6648148629
  C        21.9444426556       18.3336712842       22.5561368191
  C        21.1015089594       17.1453619398       22.5903765664
  C        21.5642371091       15.9645370154       23.2013828229
  C        20.7848958525       14.8181922585       23.2250479083
  C        19.5372972455       14.8565103294       22.6249668139
  C        19.0373819436       15.9956369726       22.0171884833
  C        19.8204316191       17.1405876360       22.0054754354
  C        21.4743875822       19.7165452598       22.4875749235
  C        19.8417982161       21.3866425488       22.4186456724
  C        18.4289975959       21.7491056750       22.3431095568
  C        17.4036701522       20.7846195256       22.2831943315
  C        18.3524987283       23.1231197575       22.3626233126
  C        17.1728682893       23.9739302475       22.2829795688
  C        16.0123603320       23.5049082866       21.6378034833
  C        14.8673830683       24.2827225893       21.5628121669
  C        14.8892998973       25.5403939964       22.1414394332
  C        16.0046757818       26.0455487468       22.7867759624
  C        17.1483607537       25.2626127926       22.8498438991
  C        19.7712771729       23.5578364332       22.4520469186
  C        21.3565887291       25.2693244706       22.5504809292
  C        21.7596317446       26.6505720850       22.6467540755
  C        20.8138394801       27.6950055390       22.7146012246
  C        23.1504368301       26.7250564053       22.6475266433
  C        24.0002909508       27.9035835684       22.7675618171
  C        23.5312847731       29.0443650167       23.4457840899
  C        24.3219622683       30.1758074979       23.5754151764
  C        25.5882487248       30.1632538771       23.0140784064
  C        26.0922293596       29.0649963657       22.3381645546
  C        25.2981187886       27.9333211250       22.2213633618
  N        22.5098237598       24.5349931755       22.4971827380
  N        24.8730376698       24.9549906388       22.4925266400
  N        28.5061635314       25.0943472351       22.1529174745
  N        24.9798068409       20.2220416995       22.5036991006
  N        25.0887568890       16.5417158610       22.7549839237
  N        20.2190790119       20.1082126144       22.4423625905
  N        16.5796502990       19.9726877722       22.2144396100
  N        20.1110793189       24.8440568079       22.5034409791
  N        20.0265878590       28.5414441338       22.7847690581
  N        20.6227053870       22.4962151611       22.4693500527
  N        22.5804827525       20.5307285187       22.4880830874
  N        24.4692272771       22.5693832292       22.4955224190
  H        22.5446613818       23.5248529692       22.4568365065
  H        29.0865840063       22.5167838482       21.1654725805
  H        31.0901009526       21.0808055141       21.0120952920
  H        29.0833347852       18.0029194417       23.1833788042
  H        27.0548099848       19.4143767120       23.3398785168
  H        22.5286122097       15.9420666295       23.6808119597
  H        21.1262697680       13.9115480813       23.6970512231
  H        18.0577560849       15.9777520622       21.5680124175
  H        19.4344946366       18.0349369212       21.5484935110
  H        16.0067455959       22.5326063586       21.1739535248
  H        13.9773307580       23.9350127684       21.0645363988
  H        15.9689463301       27.0311620268       23.2214338141
  H        18.0252278559       25.6521926336       23.3359405394
  H        22.5526538572       29.0453887646       23.8961334551
  H        23.9767868368       31.0509516379       24.1010433867
  H        27.0842798248       29.1030350923       21.9184362645
  H        25.6872101407       27.0702168169       21.7102104639
  H        22.5413636604       21.5412157930       22.4633419888
  F        31.2793098871       18.6943419912       21.9973150827
  F        18.7697716180       13.7301292316       22.6418577152
  F        13.7690946298       26.3134098386       22.0690691836
  F        26.3688215254       31.2738092272       23.1404083022
